# ==================== 
# | Model parameters | 
# ==================== 

# Continuous equation parameters
 &PARM01
 vectorInvariantMomentum=.TRUE.,
 viscA4=0.00000000e+00,
 viscAz=1.00000000e-03,
 viscAh=2.50000000e-01,
 tempAdvScheme=33,
 saltAdvScheme=33,
 staggerTimeStep=.TRUE.,
 diffKhT=2.50000000e-01,
 diffKzT=2.00000000e-05,
 diffKhS=2.50000000e-01,
 eosType='JMD95Z',
 Tref=0.00000000e+00, 0.00000000e+00, 0.00000000e+00, 0.00000000e+00, 0.00000000e+00, 0.00000000e+00, 0.00000000e+00, 0.00000000e+00, 0.00000000e+00, 0.00000000e+00, 
      0.00000000e+00, 0.00000000e+00, 0.00000000e+00, 0.00000000e+00, 0.00000000e+00, 0.00000000e+00, 0.00000000e+00, 0.00000000e+00, 0.00000000e+00, 0.00000000e+00,
 Sref=3.40000000e+01, 3.40000000e+01, 3.40000000e+01, 3.40000000e+01, 3.40000000e+01, 3.40000000e+01, 3.40000000e+01, 3.40000000e+01, 3.40000000e+01, 3.40000000e+01, 
      3.40000000e+01, 3.40000000e+01, 3.40000000e+01, 3.40000000e+01, 3.40000000e+01, 3.40000000e+01, 3.40000000e+01, 3.40000000e+01, 3.40000000e+01, 3.40000000e+01,
 no_slip_sides=.TRUE.,
 no_slip_bottom=.TRUE.,
 rigidLid=.FALSE.,
 implicitFreeSurface=.TRUE.,
 selectAddFluid=1,
 f0=1.36000000e-04,
 beta=0.00000000e+00,
 gravity=9.81000000e+00,
 hFacMin=5.00000000e-02,
 nonHydrostatic=.TRUE.,
 readBinaryPrec=64,
 &

# Elliptic solver parameters
 &PARM02
 cg2dMaxIters=300,
 cg2dTargetResidual=1.00000000e-13,
 cg3dMaxIters=20,
 cg3dTargetResidual=1.00000000e-08,
 &

# Time stepping parameters
 &PARM03
 nIter0=0,
 abEps=1.00000000e-01,
 chkptFreq=0.00000000e+00,
 pChkptFreq=0.00000000e+00,
 taveFreq=0.00000000e+00,
 dumpFreq=0,
 monitorFreq=8.64000000e+04,
 monitorSelect=1,
 periodicExternalForcing=.FALSE.,
 ExternForcingPeriod=1.00000000e+02,
 ExternForcingCycle=1.00000000e+03,
 endTime=864000,
 deltaT=2.00000000e+01,
 &

# Gridding parameters
 &PARM04
 usingCartesianGrid=.TRUE.,
 usingSphericalPolarGrid=.FALSE.,
 delX=5.00000000e+02, 5.00000000e+02, 5.00000000e+02, 5.00000000e+02, 5.00000000e+02, 5.00000000e+02, 5.00000000e+02, 5.00000000e+02, 5.00000000e+02, 5.00000000e+02, 
      5.00000000e+02, 5.00000000e+02, 5.00000000e+02, 5.00000000e+02, 5.00000000e+02, 5.00000000e+02, 5.00000000e+02, 5.00000000e+02, 5.00000000e+02, 5.00000000e+02, 
      5.00000000e+02, 5.00000000e+02, 5.00000000e+02, 5.00000000e+02, 5.00000000e+02, 5.00000000e+02, 5.00000000e+02, 5.00000000e+02, 5.00000000e+02, 5.00000000e+02, 
      5.00000000e+02, 5.00000000e+02, 5.00000000e+02, 5.00000000e+02, 5.00000000e+02, 5.00000000e+02, 5.00000000e+02, 5.00000000e+02, 5.00000000e+02, 5.00000000e+02, 
      5.00000000e+02, 5.00000000e+02, 5.00000000e+02, 5.00000000e+02, 5.00000000e+02, 5.00000000e+02, 5.00000000e+02, 5.00000000e+02, 5.00000000e+02, 5.00000000e+02,
 delY=5.00000000e+02, 5.00000000e+02, 5.00000000e+02, 5.00000000e+02, 5.00000000e+02, 5.00000000e+02, 5.00000000e+02, 5.00000000e+02, 5.00000000e+02, 5.00000000e+02, 
      5.00000000e+02, 5.00000000e+02,
 delZ=1.00000000e+01, 1.00000000e+01, 1.00000000e+01, 1.00000000e+01, 1.00000000e+01, 1.00000000e+01, 1.00000000e+01, 1.00000000e+01, 1.00000000e+01, 1.00000000e+01, 
      1.00000000e+01, 1.00000000e+01, 1.00000000e+01, 1.00000000e+01, 1.00000000e+01, 1.00000000e+01, 1.00000000e+01, 1.00000000e+01, 1.00000000e+01, 1.00000000e+01,
 &

# Input datasets
 &PARM05
 bathyFile='topog.slope',
 hydrogThetaFile='T.init',
 hydrogSaltFile='S.init',
 &

