# ==================== 
# | Model parameters | 
# ==================== 

# Continuous equation parameters
 &PARM01
 vectorInvariantMomentum=.TRUE.,
 viscA4=0.00000000e+00,
 viscAz=1.00000000e-03,
 viscAh=2.50000000e-01,
 tempAdvScheme=33,
 saltAdvScheme=33,
 staggerTimeStep=.TRUE.,
 diffK4T=0.00000000e+00,
 diffKhT=2.50000000e-01,
 diffKzT=2.00000000e-05,
 diffK4S=0.00000000e+00,
 diffKhS=2.50000000e-01,
 diffKzS=2.00000000e-05,
 eosType='JMD95Z',
 Tref=0.00000000e+00, 0.00000000e+00, 0.00000000e+00, 0.00000000e+00, 0.00000000e+00, 0.00000000e+00, 0.00000000e+00, 0.00000000e+00, 0.00000000e+00, 0.00000000e+00, 
      0.00000000e+00, 0.00000000e+00, 0.00000000e+00, 0.00000000e+00, 0.00000000e+00, 0.00000000e+00, 0.00000000e+00, 0.00000000e+00, 0.00000000e+00, 0.00000000e+00, 
      0.00000000e+00, 0.00000000e+00, 0.00000000e+00, 0.00000000e+00, 0.00000000e+00, 0.00000000e+00, 0.00000000e+00, 0.00000000e+00, 0.00000000e+00, 0.00000000e+00, 
      0.00000000e+00, 0.00000000e+00, 0.00000000e+00, 0.00000000e+00, 0.00000000e+00, 0.00000000e+00, 0.00000000e+00, 0.00000000e+00, 0.00000000e+00, 0.00000000e+00, 
      0.00000000e+00, 0.00000000e+00, 0.00000000e+00, 0.00000000e+00, 0.00000000e+00, 0.00000000e+00, 0.00000000e+00, 0.00000000e+00, 0.00000000e+00, 0.00000000e+00, 
      0.00000000e+00, 0.00000000e+00, 0.00000000e+00, 0.00000000e+00, 0.00000000e+00, 0.00000000e+00, 0.00000000e+00, 0.00000000e+00, 0.00000000e+00, 0.00000000e+00, 
      0.00000000e+00, 0.00000000e+00, 0.00000000e+00, 0.00000000e+00, 0.00000000e+00, 0.00000000e+00, 0.00000000e+00, 0.00000000e+00, 0.00000000e+00, 0.00000000e+00, 
      0.00000000e+00, 0.00000000e+00, 0.00000000e+00, 0.00000000e+00, 0.00000000e+00, 0.00000000e+00, 0.00000000e+00, 0.00000000e+00, 0.00000000e+00, 0.00000000e+00, 
      0.00000000e+00, 0.00000000e+00, 0.00000000e+00, 0.00000000e+00, 0.00000000e+00, 0.00000000e+00, 0.00000000e+00, 0.00000000e+00, 0.00000000e+00, 0.00000000e+00, 
      0.00000000e+00, 0.00000000e+00, 0.00000000e+00, 0.00000000e+00, 0.00000000e+00, 0.00000000e+00, 0.00000000e+00, 0.00000000e+00, 0.00000000e+00, 0.00000000e+00,
 Sref=3.40000000e+01, 3.40000000e+01, 3.40000000e+01, 3.40000000e+01, 3.40000000e+01, 3.40000000e+01, 3.40000000e+01, 3.40000000e+01, 3.40000000e+01, 3.40000000e+01, 
      3.40000000e+01, 3.40000000e+01, 3.40000000e+01, 3.40000000e+01, 3.40000000e+01, 3.40000000e+01, 3.40000000e+01, 3.40000000e+01, 3.40000000e+01, 3.40000000e+01, 
      3.40000000e+01, 3.40000000e+01, 3.40000000e+01, 3.40000000e+01, 3.40000000e+01, 3.40000000e+01, 3.40000000e+01, 3.40000000e+01, 3.40000000e+01, 3.40000000e+01, 
      3.40000000e+01, 3.40000000e+01, 3.40000000e+01, 3.40000000e+01, 3.40000000e+01, 3.40000000e+01, 3.40000000e+01, 3.40000000e+01, 3.40000000e+01, 3.40000000e+01, 
      3.40000000e+01, 3.40000000e+01, 3.40000000e+01, 3.40000000e+01, 3.40000000e+01, 3.40000000e+01, 3.40000000e+01, 3.40000000e+01, 3.40000000e+01, 3.40000000e+01, 
      3.40000000e+01, 3.40000000e+01, 3.40000000e+01, 3.40000000e+01, 3.40000000e+01, 3.40000000e+01, 3.40000000e+01, 3.40000000e+01, 3.40000000e+01, 3.40000000e+01, 
      3.40000000e+01, 3.40000000e+01, 3.40000000e+01, 3.40000000e+01, 3.40000000e+01, 3.40000000e+01, 3.40000000e+01, 3.40000000e+01, 3.40000000e+01, 3.40000000e+01, 
      3.40000000e+01, 3.40000000e+01, 3.40000000e+01, 3.40000000e+01, 3.40000000e+01, 3.40000000e+01, 3.40000000e+01, 3.40000000e+01, 3.40000000e+01, 3.40000000e+01, 
      3.40000000e+01, 3.40000000e+01, 3.40000000e+01, 3.40000000e+01, 3.40000000e+01, 3.40000000e+01, 3.40000000e+01, 3.40000000e+01, 3.40000000e+01, 3.40000000e+01, 
      3.40000000e+01, 3.40000000e+01, 3.40000000e+01, 3.40000000e+01, 3.40000000e+01, 3.40000000e+01, 3.40000000e+01, 3.40000000e+01, 3.40000000e+01, 3.40000000e+01,
 no_slip_sides=.TRUE.,
 no_slip_bottom=.TRUE.,
 rigidLid=.TRUE.,
 implicitFreeSurface=.FALSE.,
 implicitViscosity=.TRUE.,
 implicitDiffusion=.TRUE.,
 f0=1.36000000e-04,
 beta=0.00000000e+00,
 gravity=9.81000000e+00,
 selectAddFluid=0,
 hFacMin=5.00000000e-02,
 nonHydrostatic=.TRUE.,
 readBinaryPrec=64,
 plotLevel=0,
 &

# Elliptic solver parameters
 &PARM02
 cg2dMaxIters=300,
 cg2dTargetResidual=1.00000000e-13,
 cg3dMaxIters=20,
 cg3dTargetResidual=1.00000000e-08,
 &

# Time stepping parameters
 &PARM03
 nIter0=0,
 abEps=1.00000000e-01,
 chkptFreq=0.00000000e+00,
 pChkptFreq=0.00000000e+00,
 taveFreq=0.00000000e+00,
 dumpFreq=8.64000000e+04,
 monitorFreq=8.64000000e+04,
 monitorSelect=1,
 periodicExternalForcing=.FALSE.,
 ExternForcingPeriod=1.00000000e+02,
 ExternForcingCycle=1.00000000e+03,
 endTime=200,
 deltaT=2.00000000e+01,
 &

# Gridding parameters
 &PARM04
 usingCartesianGrid=.TRUE.,
 usingSphericalPolarGrid=.FALSE.,
 delX=1.00000000e+02, 1.00000000e+02, 1.00000000e+02, 1.00000000e+02, 1.00000000e+02, 1.00000000e+02, 1.00000000e+02, 1.00000000e+02, 1.00000000e+02, 1.00000000e+02, 
      1.00000000e+02, 1.00000000e+02, 1.00000000e+02, 1.00000000e+02, 1.00000000e+02, 1.00000000e+02, 1.00000000e+02, 1.00000000e+02, 1.00000000e+02, 1.00000000e+02, 
      1.00000000e+02, 1.00000000e+02, 1.00000000e+02, 1.00000000e+02, 1.00000000e+02, 1.00000000e+02, 1.00000000e+02, 1.00000000e+02, 1.00000000e+02, 1.00000000e+02, 
      1.00000000e+02, 1.00000000e+02, 1.00000000e+02, 1.00000000e+02, 1.00000000e+02, 1.00000000e+02, 1.00000000e+02, 1.00000000e+02, 1.00000000e+02, 1.00000000e+02, 
      1.00000000e+02, 1.00000000e+02, 1.00000000e+02, 1.00000000e+02, 1.00000000e+02, 1.00000000e+02, 1.00000000e+02, 1.00000000e+02, 1.00000000e+02, 1.00000000e+02, 
      1.00000000e+02, 1.00000000e+02, 1.00000000e+02, 1.00000000e+02, 1.00000000e+02, 1.00000000e+02, 1.00000000e+02, 1.00000000e+02, 1.00000000e+02, 1.00000000e+02, 
      1.00000000e+02, 1.00000000e+02, 1.00000000e+02, 1.00000000e+02, 1.00000000e+02, 1.00000000e+02, 1.00000000e+02, 1.00000000e+02, 1.00000000e+02, 1.00000000e+02, 
      1.00000000e+02, 1.00000000e+02, 1.00000000e+02, 1.00000000e+02, 1.00000000e+02, 1.00000000e+02, 1.00000000e+02, 1.00000000e+02, 1.00000000e+02, 1.00000000e+02, 
      1.00000000e+02, 1.00000000e+02, 1.00000000e+02, 1.00000000e+02, 1.00000000e+02, 1.00000000e+02, 1.00000000e+02, 1.00000000e+02, 1.00000000e+02, 1.00000000e+02, 
      1.00000000e+02, 1.00000000e+02, 1.00000000e+02, 1.00000000e+02, 1.00000000e+02, 1.00000000e+02, 1.00000000e+02, 1.00000000e+02, 1.00000000e+02, 1.00000000e+02, 
      1.00000000e+02, 1.00000000e+02, 1.00000000e+02, 1.00000000e+02, 1.00000000e+02, 1.00000000e+02, 1.00000000e+02, 1.00000000e+02, 1.00000000e+02, 1.00000000e+02, 
      1.00000000e+02, 1.00000000e+02, 1.00000000e+02, 1.00000000e+02, 1.00000000e+02, 1.00000000e+02, 1.00000000e+02, 1.00000000e+02, 1.00000000e+02, 1.00000000e+02, 
      1.00000000e+02, 1.00000000e+02, 1.00000000e+02, 1.00000000e+02, 1.00000000e+02, 1.00000000e+02, 1.00000000e+02, 1.00000000e+02, 1.00000000e+02, 1.00000000e+02, 
      1.00000000e+02, 1.00000000e+02, 1.00000000e+02, 1.00000000e+02, 1.00000000e+02, 1.00000000e+02, 1.00000000e+02, 1.00000000e+02, 1.00000000e+02, 1.00000000e+02, 
      1.00000000e+02, 1.00000000e+02, 1.00000000e+02, 1.00000000e+02, 1.00000000e+02, 1.00000000e+02, 1.00000000e+02, 1.00000000e+02, 1.00000000e+02, 1.00000000e+02, 
      1.00000000e+02, 1.00000000e+02, 1.00000000e+02, 1.00000000e+02, 1.00000000e+02, 1.00000000e+02, 1.00000000e+02, 1.00000000e+02, 1.00000000e+02, 1.00000000e+02, 
      1.00000000e+02, 1.00000000e+02, 1.00000000e+02, 1.00000000e+02, 1.00000000e+02, 1.00000000e+02, 1.00000000e+02, 1.00000000e+02, 1.00000000e+02, 1.00000000e+02, 
      1.00000000e+02, 1.00000000e+02, 1.00000000e+02, 1.00000000e+02, 1.00000000e+02, 1.00000000e+02, 1.00000000e+02, 1.00000000e+02, 1.00000000e+02, 1.00000000e+02, 
      1.00000000e+02, 1.00000000e+02, 1.00000000e+02, 1.00000000e+02, 1.00000000e+02, 1.00000000e+02, 1.00000000e+02, 1.00000000e+02, 1.00000000e+02, 1.00000000e+02, 
      1.00000000e+02, 1.00000000e+02, 1.00000000e+02, 1.00000000e+02, 1.00000000e+02, 1.00000000e+02, 1.00000000e+02, 1.00000000e+02, 1.00000000e+02, 1.00000000e+02, 
      1.00000000e+02, 1.00000000e+02, 1.00000000e+02, 1.00000000e+02, 1.00000000e+02, 1.00000000e+02, 1.00000000e+02, 1.00000000e+02, 1.00000000e+02, 1.00000000e+02, 
      1.00000000e+02, 1.00000000e+02, 1.00000000e+02, 1.00000000e+02, 1.00000000e+02, 1.00000000e+02, 1.00000000e+02, 1.00000000e+02, 1.00000000e+02, 1.00000000e+02, 
      1.00000000e+02, 1.00000000e+02, 1.00000000e+02, 1.00000000e+02, 1.00000000e+02, 1.00000000e+02, 1.00000000e+02, 1.00000000e+02, 1.00000000e+02, 1.00000000e+02, 
      1.00000000e+02, 1.00000000e+02, 1.00000000e+02, 1.00000000e+02, 1.00000000e+02, 1.00000000e+02, 1.00000000e+02, 1.00000000e+02, 1.00000000e+02, 1.00000000e+02, 
      1.00000000e+02, 1.00000000e+02, 1.00000000e+02, 1.00000000e+02, 1.00000000e+02, 1.00000000e+02, 1.00000000e+02, 1.00000000e+02, 1.00000000e+02, 1.00000000e+02,
 delY=1.00000000e+02, 1.00000000e+02, 1.00000000e+02, 1.00000000e+02, 1.00000000e+02, 1.00000000e+02, 1.00000000e+02, 1.00000000e+02, 1.00000000e+02, 1.00000000e+02, 
      1.00000000e+02, 1.00000000e+02, 1.00000000e+02, 1.00000000e+02, 1.00000000e+02, 1.00000000e+02, 1.00000000e+02, 1.00000000e+02, 1.00000000e+02, 1.00000000e+02, 
      1.00000000e+02, 1.00000000e+02, 1.00000000e+02, 1.00000000e+02, 1.00000000e+02, 1.00000000e+02, 1.00000000e+02, 1.00000000e+02, 1.00000000e+02, 1.00000000e+02, 
      1.00000000e+02, 1.00000000e+02, 1.00000000e+02, 1.00000000e+02, 1.00000000e+02, 1.00000000e+02, 1.00000000e+02, 1.00000000e+02, 1.00000000e+02, 1.00000000e+02, 
      1.00000000e+02, 1.00000000e+02, 1.00000000e+02, 1.00000000e+02, 1.00000000e+02, 1.00000000e+02, 1.00000000e+02, 1.00000000e+02, 1.00000000e+02, 1.00000000e+02, 
      1.00000000e+02, 1.00000000e+02,
 delZ=3.63800563e-01, 3.63836916e-01, 3.63881315e-01, 3.63935543e-01, 3.64001775e-01, 3.64082667e-01, 3.64181463e-01, 3.64302125e-01, 3.64449489e-01, 3.64629463e-01, 
      3.64849256e-01, 3.65117673e-01, 3.65445457e-01, 3.65845725e-01, 3.66334481e-01, 3.66931250e-01, 3.67659850e-01, 3.68549324e-01, 3.69635073e-01, 3.70960232e-01, 
      3.72577326e-01, 3.74550278e-01, 3.76956814e-01, 3.79891351e-01, 3.83468441e-01, 3.87826863e-01, 3.93134432e-01, 3.99593630e-01, 4.07448095e-01, 4.16989998e-01, 
      4.28568273e-01, 4.42597525e-01, 4.59567301e-01, 4.80051165e-01, 5.04714653e-01, 5.34320752e-01, 5.69730983e-01, 6.11899498e-01, 6.61856963e-01, 7.20680506e-01, 
      7.89445916e-01, 8.69159049e-01, 9.60665351e-01, 1.06454006e+00, 1.18096693e+00, 1.30961981e+00, 1.44956729e+00, 1.59922401e+00, 1.75636994e+00, 1.91824993e+00, 
      2.08175007e+00, 2.24363006e+00, 2.40077599e+00, 2.55043271e+00, 2.69038019e+00, 2.81903307e+00, 2.93545994e+00, 3.03933465e+00, 3.13084095e+00, 3.21055408e+00, 
      3.27931949e+00, 3.33814304e+00, 3.38810050e+00, 3.43026902e+00, 3.46567925e+00, 3.49528535e+00, 3.51994884e+00, 3.54043270e+00, 3.55740248e+00, 3.57143173e+00, 
      3.58301000e+00, 3.59255191e+00, 3.60040637e+00, 3.60686557e+00, 3.61217314e+00, 3.61653156e+00, 3.62010865e+00, 3.62304319e+00, 3.62544972e+00, 3.62742267e+00, 
      3.62903977e+00, 3.63036493e+00, 3.63145068e+00, 3.63234015e+00, 3.63306875e+00, 3.63366552e+00, 3.63415427e+00, 3.63455454e+00, 3.63488233e+00, 3.63515074e+00, 
      3.63537054e+00, 3.63555051e+00, 3.63569788e+00, 3.63581854e+00, 3.63591733e+00, 3.63599823e+00, 3.63606446e+00, 3.63611869e+00, 3.63616308e+00, 3.63619944e+00,
 &

# Input datasets
 &PARM05
 bathyFile='topog.slope',
 hydrogThetaFile='T.init',
 hydrogSaltFile='S.init',
 &

