# Packages
 &PACKAGES
 useICEBERG=.TRUE.,
 useSHELFICE=.FALSE.,
 useDiagnostics=.TRUE.,
 useOBCS=.TRUE.,
#useMNC=.TRUE.,
 &
