# Open-boundaries
 &OBCS_PARM01

 OB_singleIeast=-1,
# OB_Ieast = 10*-1,

 useOBCSsponge=.TRUE.,
# useOrlanskiEast=.TRUE.,
# useOBCSbalance=.TRUE.,
 useOBCSprescribe=.TRUE.,
 OBEsFile='S.bound',
 OBEtFile='T.bound',
 OBEuFile='EBCu.bin',
 &

# Orlanski parameters
 &OBCS_PARM02
 &

 &OBCS_PARM03
 spongeThickness=5,
 Urelaxobcsinner=86400.,
 Urelaxobcsbound=3600.,
 Vrelaxobcsinner=86400.,
 Vrelaxobcsbound=3600.,
 &
