# ==================== 
# | Model parameters | 
# ==================== 

# Continuous equation parameters
 &PARM01
 vectorInvariantMomentum=.TRUE.,
 viscA4=0.00000000e+00,
 viscAz=1.00000000e-03,
 viscAh=2.50000000e-01,
 tempAdvScheme=33,
 saltAdvScheme=33,
 staggerTimeStep=.TRUE.,
 diffK4T=0.00000000e+00,
 diffKhT=2.50000000e-01,
 diffKzT=2.00000000e-05,
 diffK4S=0.00000000e+00,
 diffKhS=2.50000000e-01,
 diffKzS=2.00000000e-05,
 eosType='JMD95Z',
 Tref=0.00000000e+00, 0.00000000e+00, 0.00000000e+00, 0.00000000e+00, 0.00000000e+00, 0.00000000e+00, 0.00000000e+00, 0.00000000e+00, 0.00000000e+00, 0.00000000e+00, 
      0.00000000e+00, 0.00000000e+00, 0.00000000e+00, 0.00000000e+00, 0.00000000e+00, 0.00000000e+00, 0.00000000e+00, 0.00000000e+00, 0.00000000e+00, 0.00000000e+00, 
      0.00000000e+00, 0.00000000e+00, 0.00000000e+00, 0.00000000e+00, 0.00000000e+00, 0.00000000e+00, 0.00000000e+00, 0.00000000e+00, 0.00000000e+00, 0.00000000e+00, 
      0.00000000e+00, 0.00000000e+00, 0.00000000e+00, 0.00000000e+00, 0.00000000e+00, 0.00000000e+00, 0.00000000e+00, 0.00000000e+00, 0.00000000e+00, 0.00000000e+00,
 Sref=3.40000000e+01, 3.40000000e+01, 3.40000000e+01, 3.40000000e+01, 3.40000000e+01, 3.40000000e+01, 3.40000000e+01, 3.40000000e+01, 3.40000000e+01, 3.40000000e+01, 
      3.40000000e+01, 3.40000000e+01, 3.40000000e+01, 3.40000000e+01, 3.40000000e+01, 3.40000000e+01, 3.40000000e+01, 3.40000000e+01, 3.40000000e+01, 3.40000000e+01, 
      3.40000000e+01, 3.40000000e+01, 3.40000000e+01, 3.40000000e+01, 3.40000000e+01, 3.40000000e+01, 3.40000000e+01, 3.40000000e+01, 3.40000000e+01, 3.40000000e+01, 
      3.40000000e+01, 3.40000000e+01, 3.40000000e+01, 3.40000000e+01, 3.40000000e+01, 3.40000000e+01, 3.40000000e+01, 3.40000000e+01, 3.40000000e+01, 3.40000000e+01,
 no_slip_sides=.TRUE.,
 no_slip_bottom=.TRUE.,
 rigidLid=.TRUE.,
 implicitFreeSurface=.FALSE.,
 implicitViscosity=.TRUE.,
 implicitDiffusion=.TRUE.,
 f0=0.0,
 beta=0.00000000e+00,
 gravity=9.81000000e+00,
 selectAddFluid=0,
 hFacMin=5.00000000e-02,
 nonHydrostatic=.TRUE.,
 readBinaryPrec=64,
 plotLevel=0,
 &

# Elliptic solver parameters
 &PARM02
 cg2dMaxIters=300,
 cg2dTargetResidual=1.00000000e-13,
 cg3dMaxIters=20,
 cg3dTargetResidual=1.00000000e-08,
 &

# Time stepping parameters
 &PARM03
 nIter0=0,
 abEps=1.00000000e-01,
 chkptFreq=0.00000000e+00,
 pChkptFreq=0.00000000e+00,
 taveFreq=0.00000000e+00,
 dumpFreq=8.64000000e+04,
 monitorFreq=8.64000000e+04,
 monitorSelect=1,
 periodicExternalForcing=.FALSE.,
 ExternForcingPeriod=1.00000000e+02,
 ExternForcingCycle=1.00000000e+03,
 endTime=2160000,
 deltaT=2.00000000e+01,
 &

# Gridding parameters
 &PARM04
 usingCartesianGrid=.TRUE.,
 usingSphericalPolarGrid=.FALSE.,
 delX=5.00000000e+02, 5.00000000e+02, 5.00000000e+02, 5.00000000e+02, 5.00000000e+02, 5.00000000e+02, 5.00000000e+02, 5.00000000e+02, 5.00000000e+02, 5.00000000e+02, 
      5.00000000e+02, 5.00000000e+02, 5.00000000e+02, 5.00000000e+02, 5.00000000e+02, 5.00000000e+02, 5.00000000e+02, 5.00000000e+02, 5.00000000e+02, 5.00000000e+02, 
      5.00000000e+02, 5.00000000e+02, 5.00000000e+02, 5.00000000e+02, 5.00000000e+02, 5.00000000e+02, 5.00000000e+02, 5.00000000e+02, 5.00000000e+02, 5.00000000e+02, 
      5.00000000e+02, 5.00000000e+02, 5.00000000e+02, 5.00000000e+02, 5.00000000e+02, 5.00000000e+02, 5.00000000e+02, 5.00000000e+02, 5.00000000e+02, 5.00000000e+02, 
      5.00000000e+02, 5.00000000e+02, 5.00000000e+02, 5.00000000e+02, 5.00000000e+02, 5.00000000e+02, 5.00000000e+02, 5.00000000e+02, 5.00000000e+02, 5.00000000e+02,
 delY=5.00000000e+02, 5.00000000e+02, 5.00000000e+02, 5.00000000e+02, 5.00000000e+02, 5.00000000e+02, 5.00000000e+02, 5.00000000e+02, 5.00000000e+02, 5.00000000e+02, 
      5.00000000e+02, 5.00000000e+02,
 delZ=1.07142068e+00, 1.10649381e+00, 1.14891825e+00, 1.20012791e+00, 1.26178663e+00, 1.33580188e+00, 1.42432746e+00, 1.52974875e+00, 1.65464241e+00, 1.80170126e+00, 
      1.97361479e+00, 2.17289762e+00, 2.40166338e+00, 2.66135014e+00, 2.95241732e+00, 3.27404952e+00, 3.62391823e+00, 3.99806002e+00, 4.39092486e+00, 4.79562483e+00, 
      5.20437517e+00, 5.60907514e+00, 6.00193998e+00, 6.37608177e+00, 6.72595048e+00, 7.04758268e+00, 7.33864986e+00, 7.59833662e+00, 7.82710238e+00, 8.02638521e+00, 
      8.19829874e+00, 8.34535759e+00, 8.47025125e+00, 8.57567254e+00, 8.66419812e+00, 8.73821337e+00, 8.79987209e+00, 8.85108175e+00, 8.89350619e+00, 8.92857932e+00,
 &

# Input datasets
 &PARM05
 bathyFile='topog.slope',
 hydrogThetaFile='T.init',
 hydrogSaltFile='S.init',
 &

