# ==================== 
# | Model parameters | 
# ==================== 

# Continuous equation parameters
 &PARM01
 vectorInvariantMomentum=.TRUE.,
 viscA4=0.00000000e+00,
 viscAz=1.00000000e-03,
 viscAh=2.50000000e-01,
 tempAdvScheme=33,
 saltAdvScheme=33,
 staggerTimeStep=.TRUE.,
 diffK4T=0.00000000e+00,
 diffKhT=2.50000000e-01,
 diffKzT=2.00000000e-05,
 diffK4S=0.00000000e+00,
 diffKhS=2.50000000e-01,
 diffKzS=2.00000000e-05,
 eosType='JMD95Z',
 Tref=0.00000000e+00, 0.00000000e+00, 0.00000000e+00, 0.00000000e+00, 0.00000000e+00, 0.00000000e+00, 0.00000000e+00, 0.00000000e+00, 0.00000000e+00, 0.00000000e+00, 
      0.00000000e+00, 0.00000000e+00, 0.00000000e+00, 0.00000000e+00, 0.00000000e+00, 0.00000000e+00, 0.00000000e+00, 0.00000000e+00, 0.00000000e+00, 0.00000000e+00, 
      0.00000000e+00, 0.00000000e+00, 0.00000000e+00, 0.00000000e+00, 0.00000000e+00, 0.00000000e+00, 0.00000000e+00, 0.00000000e+00, 0.00000000e+00, 0.00000000e+00, 
      0.00000000e+00, 0.00000000e+00, 0.00000000e+00, 0.00000000e+00, 0.00000000e+00, 0.00000000e+00, 0.00000000e+00, 0.00000000e+00, 0.00000000e+00, 0.00000000e+00, 
      0.00000000e+00, 0.00000000e+00, 0.00000000e+00, 0.00000000e+00, 0.00000000e+00, 0.00000000e+00, 0.00000000e+00, 0.00000000e+00, 0.00000000e+00, 0.00000000e+00,
 Sref=3.40000000e+01, 3.40000000e+01, 3.40000000e+01, 3.40000000e+01, 3.40000000e+01, 3.40000000e+01, 3.40000000e+01, 3.40000000e+01, 3.40000000e+01, 3.40000000e+01, 
      3.40000000e+01, 3.40000000e+01, 3.40000000e+01, 3.40000000e+01, 3.40000000e+01, 3.40000000e+01, 3.40000000e+01, 3.40000000e+01, 3.40000000e+01, 3.40000000e+01, 
      3.40000000e+01, 3.40000000e+01, 3.40000000e+01, 3.40000000e+01, 3.40000000e+01, 3.40000000e+01, 3.40000000e+01, 3.40000000e+01, 3.40000000e+01, 3.40000000e+01, 
      3.40000000e+01, 3.40000000e+01, 3.40000000e+01, 3.40000000e+01, 3.40000000e+01, 3.40000000e+01, 3.40000000e+01, 3.40000000e+01, 3.40000000e+01, 3.40000000e+01, 
      3.40000000e+01, 3.40000000e+01, 3.40000000e+01, 3.40000000e+01, 3.40000000e+01, 3.40000000e+01, 3.40000000e+01, 3.40000000e+01, 3.40000000e+01, 3.40000000e+01,
 no_slip_sides=.TRUE.,
 no_slip_bottom=.TRUE.,
 rigidLid=.TRUE.,
 implicitFreeSurface=.FALSE.,
 implicitViscosity=.TRUE.,
 implicitDiffusion=.TRUE.,
 f0=1.36000000e-04,
 beta=0.00000000e+00,
 gravity=9.81000000e+00,
 selectAddFluid=0,
 hFacMin=5.00000000e-02,
 nonHydrostatic=.TRUE.,
 readBinaryPrec=64,
 plotLevel=0,
 &

# Elliptic solver parameters
 &PARM02
 cg2dMaxIters=300,
 cg2dTargetResidual=1.00000000e-13,
 cg3dMaxIters=20,
 cg3dTargetResidual=1.00000000e-08,
 &

# Time stepping parameters
 &PARM03
 nIter0=0,
 abEps=1.00000000e-01,
 chkptFreq=0.00000000e+00,
 pChkptFreq=0.00000000e+00,
 taveFreq=0.00000000e+00,
 dumpFreq=8.64000000e+04,
 monitorFreq=8.64000000e+04,
 monitorSelect=1,
 periodicExternalForcing=.FALSE.,
 ExternForcingPeriod=1.00000000e+02,
 ExternForcingCycle=1.00000000e+03,
 endTime=1728000,
 deltaT=2.00000000e+01,
 &

# Gridding parameters
 &PARM04
 usingCartesianGrid=.TRUE.,
 usingSphericalPolarGrid=.FALSE.,
 delX=5.00000000e+02, 5.00000000e+02, 5.00000000e+02, 5.00000000e+02, 5.00000000e+02, 5.00000000e+02, 5.00000000e+02, 5.00000000e+02, 5.00000000e+02, 5.00000000e+02, 
      5.00000000e+02, 5.00000000e+02, 5.00000000e+02, 5.00000000e+02, 5.00000000e+02, 5.00000000e+02, 5.00000000e+02, 5.00000000e+02, 5.00000000e+02, 5.00000000e+02, 
      5.00000000e+02, 5.00000000e+02, 5.00000000e+02, 5.00000000e+02, 5.00000000e+02, 5.00000000e+02, 5.00000000e+02, 5.00000000e+02, 5.00000000e+02, 5.00000000e+02, 
      5.00000000e+02, 5.00000000e+02, 5.00000000e+02, 5.00000000e+02, 5.00000000e+02, 5.00000000e+02, 5.00000000e+02, 5.00000000e+02, 5.00000000e+02, 5.00000000e+02, 
      5.00000000e+02, 5.00000000e+02, 5.00000000e+02, 5.00000000e+02, 5.00000000e+02, 5.00000000e+02, 5.00000000e+02, 5.00000000e+02, 5.00000000e+02, 5.00000000e+02,
 delY=5.00000000e+02, 5.00000000e+02, 5.00000000e+02, 5.00000000e+02, 5.00000000e+02, 5.00000000e+02, 5.00000000e+02, 5.00000000e+02, 5.00000000e+02, 5.00000000e+02, 
      5.00000000e+02, 5.00000000e+02,
 delZ=7.75653725e-01, 7.86268864e-01, 7.99187261e-01, 8.14896189e-01, 8.33979996e-01, 8.57136547e-01, 8.85195049e-01, 9.19134601e-01, 9.60102330e-01, 1.00942931e+00, 
      1.06864150e+00, 1.13946197e+00, 1.22379900e+00, 1.32371393e+00, 1.44136101e+00, 1.57889183e+00, 1.73831810e+00, 1.92133070e+00, 2.12908011e+00, 2.36193385e+00, 
      2.61923962e+00, 2.89913458e+00, 3.19844801e+00, 3.51273989e+00, 3.83649986e+00, 4.16350014e+00, 4.48726011e+00, 4.80155199e+00, 5.10086542e+00, 5.38076038e+00, 
      5.63806615e+00, 5.87091989e+00, 6.07866930e+00, 6.26168190e+00, 6.42110817e+00, 6.55863899e+00, 6.67628607e+00, 6.77620100e+00, 6.86053803e+00, 6.93135850e+00, 
      6.99057069e+00, 7.03989767e+00, 7.08086540e+00, 7.11480495e+00, 7.14286345e+00, 7.16602000e+00, 7.18510381e+00, 7.20081274e+00, 7.21373114e+00, 7.22434627e+00,
 &

# Input datasets
 &PARM05
 bathyFile='topog.slope',
 hydrogThetaFile='T.init',
 hydrogSaltFile='S.init',
 &

