# Packages
 &PACKAGES
 useOBCS=.TRUE.,
 useSHELFICE=.TRUE.,
 useDiagnostics=.TRUE.,
 &
