# ====================
# | Model parameters |
# ====================
#
# Continuous equation parameters
 &PARM01
 tRef=40*1.,
 sRef=40*35.,
 viscA4=0.0E4,
 viscAh=2.5E-1,
 viscAz=1.E-3,
 bottomDragLinear=0.E-4,
 no_slip_sides=.TRUE.,
 no_slip_bottom=.TRUE.,
 implicitViscosity=.TRUE.,
 implicitDiffusion=.TRUE.,
 diffK4T=0.E4,
 diffKhT=2.5E-1,
 diffKzT=2.E-5,
 diffK4S=0.E4,
 diffKhS=2.5E-1,
 diffKzS=2.E-5,
 tempAdvScheme=33,
 saltAdvScheme=33,
 staggerTimeStep=.TRUE.,
 f0=1.5e-4,
 beta=0.E-11,
 eosType='LINEAR',
 tAlpha=0.4E-4,
 sBeta =8.0E-4,
 rigidLid=.TRUE.,
 implicitFreeSurface=.FALSE.,
 hFacMin=0.05,
 nonHydrostatic=.TRUE.,
 readBinaryPrec=64,
#- not safe to use globalFiles in multi-processors runs
 globalFiles=.FALSE.,
 useSingleCpuIO=.TRUE.,
 plotLevel=0,
 &

# Elliptic solver parameters
 &PARM02
 cg2dMaxIters=300,
 cg2dTargetResidual=1.E-13,
 cg3dMaxIters=20,
 cg3dTargetResidual=1.E-8,
 &

# Time stepping parameters
 &PARM03
 nIter0=0,
#nTimeSteps=10,
<<<<<<< Updated upstream
 nTimeSteps=43200,
#nTimeSteps=864000,
=======
#nTimeSteps=21600,
 nTimeSteps=864000,
>>>>>>> Stashed changes
#nTimeSteps=3110400,
 deltaT=20.0,
 abEps=0.01,
 pChkptFreq=43200.0,
 chkptFreq=0.0,
 dumpFreq=0.0,
#taveFreq=21600.0,
 monitorSelect=1,
 monitorFreq=20000.,
 &

# Gridding parameters
 &PARM04
 usingCartesianGrid=.TRUE.,
#delXfile='dx.bin',
 dXspacing=500.,
 dYspacing=500.,
 delZ=40*5,
 &

# Input datasets
 &PARM05
 bathyFile      ='topog.slope',
 hydrogThetaFile='T.init',
 hydrogSaltFile='S.init',
#geothermalfile ='Qnet.forcing',
#hydrogThetaFile='T.pickup',
#uVelInitFile   ='U.pickup',
#pSurfInitFile  ='Eta.pickup',
 &
